
Circuit: t1

Doing analysis at TEMP = 27.000000 and TNOM = 27.000000



No. of Data Rows : 1
********************
Operating point
********************
op_tab
@gb[i] = -1.89280e-03
@id[current] = 1.010600e-03
@r1[i] = 1.892709e-03
@r2[i] = 1.892795e-03
@r3[i] = -8.66569e-08
@r4[i] = 7.973795e-04
@r5[i] = 2.903395e-03
@r6[i] = -1.09533e-03
@r7[i] = -1.09533e-03
v(1) = 5.211100e+00
v(2) = 3.306467e+00
v(3) = -5.63353e-01
v(4) = 3.306733e+00
v(5) = 1.215919e+01
v(6) = 0.000000e+00
v(7) = 3.315891e+00
v(8) = 2.193945e+00
hc#branch = 2.105929e-03
v0#branch = -1.09533e-03
va#branch = -1.89271e-03
op_end
