
Circuit: l5 circuit output impedance

false = 0.000000e+00
true = 1.000000e+00
boltz = 1.380620e-23
c = 2.997925e+08
e = 2.718282e+00
echarge = 1.602190e-19
i = 0.000000e+00,1.000000e+00
kelvin = -2.73150e+02
no = 0.000000e+00
pi = 3.141593e+00
planck = 6.626200e-34
yes = 1.000000e+00
Reducing trtol to 1 for xspice 'A' devices
Doing analysis at TEMP = 27.000000 and TNOM = 27.000000



No. of Data Rows : 7001
out_imp_TAB
Output Imp = 680.05 + -466.901 j
out_imp_END
